**
**  MODEL A  SIMPLE TRUSS STRUCTURE
**
**
*NODE,NSET=Nall
**
1, 0.0, 0.0, 0.0
2, 3.0, 0.0, 0.0
3, 1.5, 1.5, 0.0
**
*ELEMENT,TYPE=T3D2,ELSET=EAll
1, 1, 3
2, 2, 3
**
*BOUNDARY
1,1,1
1,2,2
2,1,1
2,2,2
NALL,3,3
*MATERIAL,NAME=EXAMPLE
*ELASTIC
1.,0.
*SOLID SECTION,ELSET=EAll,MATERIAL=EXAMPLE
0.1
*STEP
*STATIC
*CLOAD
3, 1, -1.0
*Node PRINT,NSET=Nall
U,RF
*END STEP