**
**  MODEL A  SIMPLE TRUSS STRUCTURE
**
**
*NODE,NSET=Nall
**
1, 0.0, 0.0, 0.0
2, 1.0, 1.0, 0.0
3, 2.0, 0.0, 0.0
4, 3.0, 1.0, 0.0
5, 4.0, 0.0, 0.0
**
*ELEMENT,TYPE=T3D2,ELSET=EAll
1, 1, 2
2, 1, 3
3, 2, 3
4, 2, 4
5, 3, 4
6, 3, 5
7, 4, 5
**
*BOUNDARY
1,1,1
1,2,2
5,2,2
NALL,3,3
*MATERIAL,NAME=EXAMPLE
*ELASTIC
100.,0.
*SOLID SECTION,ELSET=EAll,MATERIAL=EXAMPLE
0.1
*STEP
*STATIC
*CLOAD
3, 2, -1.0
*Node PRINT,NSET=Nall
U,RF
*Node FILE,NSET=Nall
U
*El FILE,NSET=Nall
S
*END STEP